begin options
  PRINT_INPUT
  PRINT_FLOWS
  SAVE_FLOWS
end options

begin dimensions
  MAXBOUND 3
end dimensions

begin period 1
 5  6 15  0.0
 5 35 16  0.0
 5 33  6  0.0
end period
